<routes>	

    	<!-- definition of cars. Speed is in m/s -->	
	<!-- carFollowModel="IDM" -->
	<!-- "normc(0.775,0.1375,0.43745, 1)" -->
	<vType id="passengerGauss" accel="1.5" decel="4.5" sigma="0.5" length="4"
		   minGap="0" maxSpeed="44.44" color="0.16,0.33,0.42" probability="1"
		   carFollowModel="CC" tauEngine="0.5" omegaN="0.2" xi="1" c1="0.5"
		   lanesCount="4" ccAccel="1.5" ploegKp="0.2" ploegKd="0.7"
		   ploegH="0.5" speedFactor="1.0" vClass="passenger"
		   guiShape="passenger"/>	

	<vType id="passenger160" accel="1.5" decel="4.5" sigma="0.5" length="4"
		   minGap="0" maxSpeed="44.44" color="0.16,0.33,0.42" probability="1"
		   carFollowModel="CC" tauEngine="0.5" omegaN="0.2" xi="1" c1="0.5"
		   lanesCount="4" ccAccel="1.5" ploegKp="0.2" ploegKd="0.7"
		   ploegH="0.5" speedFactor="0.9" departSpeed="max" vClass="passenger"
		   guiShape="passenger"/>
	<vType id="passenger150" accel="1.5" decel="4.5" sigma="0.5" length="4"
		   minGap="0" maxSpeed="41.66" color="0.16,0.33,0.42" probability="1"
		   carFollowModel="CC" tauEngine="0.5" omegaN="0.2" xi="1" c1="0.5"
		   lanesCount="4" ccAccel="1.5" ploegKp="0.2" ploegKd="0.7"
		   ploegH="0.5" speedFactor="0.9" departSpeed="max" vClass="passenger"
		   guiShape="passenger/wagon"/>
	<vType id="passenger140" accel="1.5" decel="4.5" sigma="0.5" length="4"
		   minGap="0" maxSpeed="38.88" color="0.16,0.33,0.42" probability="1"
		   carFollowModel="CC" tauEngine="0.5" omegaN="0.2" xi="1" c1="0.5"
		   lanesCount="4" ccAccel="1.5" ploegKp="0.2" ploegKd="0.7"
		   ploegH="0.5" speedFactor="0.9" departSpeed="max" vClass="passenger"
		   guiShape="passenger/sedan"/>
	<vType id="passenger130" accel="1.5" decel="4.5" sigma="0.5" length="4"
		   minGap="0" maxSpeed="36.11" color="0.16,0.33,0.42" probability="1"
		   carFollowModel="CC" tauEngine="0.5" omegaN="0.2" xi="1" c1="0.5"
		   lanesCount="4" ccAccel="1.5" ploegKp="0.2" ploegKd="0.7"
		   ploegH="0.5" speedFactor="0.9" departSpeed="max" vClass="passenger"
		   guiShape="passenger/wagon"/>
	<vType id="passenger120" accel="1.5" decel="4.5" sigma="0.5" length="4"
		   minGap="0" maxSpeed="33.33" color="0.16,0.33,0.42" probability="1"
		   carFollowModel="CC" tauEngine="0.5" omegaN="0.2" xi="1" c1="0.5"
		   lanesCount="4" ccAccel="1.5" ploegKp="0.2" ploegKd="0.7"
		   ploegH="0.5" speedFactor="0.9" departSpeed="max" vClass="passenger"
		   guiShape="passenger/sedan"/>
	<vType id="passenger110" accel="1.5" decel="4.5" sigma="0.5" length="4"
		   minGap="0" maxSpeed="30.55" color="0.16,0.33,0.42" probability="1"
		   carFollowModel="CC" tauEngine="0.5" omegaN="0.2" xi="1" c1="0.5"
		   lanesCount="4" ccAccel="1.5" ploegKp="0.2" ploegKd="0.7"
		   ploegH="0.5" speedFactor="0.9" departSpeed="max" vClass="passenger"
		   guiShape="passenger/hatchback"/>
	<vType id="passenger100" accel="1.5" decel="4.5" sigma="0.5" length="4"
		   minGap="0" maxSpeed="27.77" color="0.16,0.33,0.42" probability="1"
		   carFollowModel="CC" tauEngine="0.5" omegaN="0.2" xi="1" c1="0.5"
		   lanesCount="4" ccAccel="1.5" ploegKp="0.2" ploegKd="0.7"
		   ploegH="0.5" speedFactor="0.9" departSpeed="max" vClass="passenger"
		   guiShape="passenger/sedan"/>
	<vType id="passenger90" accel="1.5" decel="4.5" sigma="0.5" length="4"
		   minGap="0" maxSpeed="25" color="0.16,0.33,0.42" probability="1"
		   carFollowModel="CC" tauEngine="0.5" omegaN="0.2" xi="1" c1="0.5"
		   lanesCount="4" ccAccel="1.5" ploegKp="0.2" ploegKd="0.7"
		   ploegH="0.5" speedFactor="0.9" departSpeed="max" vClass="passenger"
		   guiShape="passenger/hatchback"/>
	<vType id="passenger80" accel="1.5" decel="4.5" sigma="0.5" length="4"
		   minGap="0" maxSpeed="22.22" color="0.16,0.33,0.42" probability="1"
		   carFollowModel="CC" tauEngine="0.5" omegaN="0.2" xi="1" c1="0.5"
		   lanesCount="4" ccAccel="1.5" ploegKp="0.2" ploegKd="0.7"
		   ploegH="0.5" speedFactor="0.9" departSpeed="max" vClass="passenger"
		   guiShape="passenger/wagon"/>
	<vType id="passenger70" accel="1.5" decel="4.5" sigma="0.5" length="4"
		   minGap="0" maxSpeed="19.44" color="0.16,0.33,0.42" probability="1"
		   carFollowModel="CC" tauEngine="0.5" omegaN="0.2" xi="1" c1="0.5"
		   lanesCount="4" ccAccel="1.5" ploegKp="0.2" ploegKd="0.7"
		   ploegH="0.5" speedFactor="0.9" departSpeed="max" vClass="passenger"
		   guiShape="passenger/van"/>


	
	<!-- possible routes to take. Build routes by using the tool Netedit. -->	
	<route id="start_to_dest_1" edges="edge_0_0 edge_0_1 edge_0_4 edge_0_6 absorption_0"/>
	
	<route id="start_to_dest_2" edges="edge_0_0 edge_0_1 edge_0_2 edge_0_3 edge_1_0 edge_1_1 edge_1_4 edge_1_6 absorption_1"/>
	
	<route id="start_to_dest_3" edges="edge_0_0 edge_0_1 edge_0_2 edge_0_3 edge_1_0 edge_1_1 edge_1_2 edge_1_3 edge_2_0 edge_2_1 edge_2_4 edge_2_6 absorption_2"/>
	
	<route id="start_to_dest_4" edges="edge_0_0 edge_0_1 edge_0_2 edge_0_3 edge_1_0 edge_1_1 edge_1_2 edge_1_3 edge_2_0 edge_2_1 edge_2_2 edge_2_3 edge_3_0 edge_3_1 edge_3_4 edge_3_6 absorption_3"/>
	
	<route id="start_to_dest_5" edges="edge_0_0 edge_0_1 edge_0_2 edge_0_3 edge_1_0 edge_1_1 edge_1_2 edge_1_3 edge_2_0 edge_2_1 edge_2_2 edge_2_3 edge_3_0 edge_3_1 edge_3_2 edge_3_3 edge_4_0 			edge_4_1 edge_4_4 edge_4_6 absorption_4"/>
	
</routes>
