<routes>	

    	<!-- definition of cars. Speed is in m/s -->	
	<!-- carFollowModel="IDM" -->
	<!-- "normc(0.775,0.1375,0.43745, 1)" -->
	<vType id="passengerGauss" accel="1.5" decel="4.5" sigma="0.5" length="4"
		   minGap="0" maxSpeed="44.44" color="0.16,0.33,0.42" probability="1"
		   carFollowModel="CC" tauEngine="0.5" omegaN="0.2" xi="1" c1="0.5"
		   lanesCount="4" ccAccel="1.5" ploegKp="0.2" ploegKd="0.7"
		   ploegH="0.5" speedFactor="1.0" vClass="passenger"
		   guiShape="passenger"/>	

	<vType id="passenger160" accel="1.5" decel="4.5" sigma="0.5" length="4"
		   minGap="0" maxSpeed="44.44" color="0.16,0.33,0.42" probability="1"
		   carFollowModel="CC" tauEngine="0.5" omegaN="0.2" xi="1" c1="0.5"
		   lanesCount="4" ccAccel="1.5" ploegKp="0.2" ploegKd="0.7"
		   ploegH="0.5" speedFactor="0.9" departSpeed="max" vClass="passenger"
		   guiShape="passenger"/>
	<vType id="passenger150" accel="1.5" decel="4.5" sigma="0.5" length="4"
		   minGap="0" maxSpeed="41.66" color="0.16,0.33,0.42" probability="1"
		   carFollowModel="CC" tauEngine="0.5" omegaN="0.2" xi="1" c1="0.5"
		   lanesCount="4" ccAccel="1.5" ploegKp="0.2" ploegKd="0.7"
		   ploegH="0.5" speedFactor="0.9" departSpeed="max" vClass="passenger"
		   guiShape="passenger/wagon"/>
	<vType id="passenger140" accel="1.5" decel="4.5" sigma="0.5" length="4"
		   minGap="0" maxSpeed="38.88" color="0.16,0.33,0.42" probability="1"
		   carFollowModel="CC" tauEngine="0.5" omegaN="0.2" xi="1" c1="0.5"
		   lanesCount="4" ccAccel="1.5" ploegKp="0.2" ploegKd="0.7"
		   ploegH="0.5" speedFactor="0.9" departSpeed="max" vClass="passenger"
		   guiShape="passenger/sedan"/>
	<vType id="passenger130" accel="1.5" decel="4.5" sigma="0.5" length="4"
		   minGap="0" maxSpeed="36.11" color="0.16,0.33,0.42" probability="1"
		   carFollowModel="CC" tauEngine="0.5" omegaN="0.2" xi="1" c1="0.5"
		   lanesCount="4" ccAccel="1.5" ploegKp="0.2" ploegKd="0.7"
		   ploegH="0.5" speedFactor="0.9" departSpeed="max" vClass="passenger"
		   guiShape="passenger/wagon"/>
	<vType id="passenger120" accel="1.5" decel="4.5" sigma="0.5" length="4"
		   minGap="0" maxSpeed="33.33" color="0.16,0.33,0.42" probability="1"
		   carFollowModel="CC" tauEngine="0.5" omegaN="0.2" xi="1" c1="0.5"
		   lanesCount="4" ccAccel="1.5" ploegKp="0.2" ploegKd="0.7"
		   ploegH="0.5" speedFactor="0.9" departSpeed="max" vClass="passenger"
		   guiShape="passenger/sedan"/>
	<vType id="passenger110" accel="1.5" decel="4.5" sigma="0.5" length="4"
		   minGap="0" maxSpeed="30.55" color="0.16,0.33,0.42" probability="1"
		   carFollowModel="CC" tauEngine="0.5" omegaN="0.2" xi="1" c1="0.5"
		   lanesCount="4" ccAccel="1.5" ploegKp="0.2" ploegKd="0.7"
		   ploegH="0.5" speedFactor="0.9" departSpeed="max" vClass="passenger"
		   guiShape="passenger/hatchback"/>
	<vType id="passenger100" accel="1.5" decel="4.5" sigma="0.5" length="4"
		   minGap="0" maxSpeed="27.77" color="0.16,0.33,0.42" probability="1"
		   carFollowModel="CC" tauEngine="0.5" omegaN="0.2" xi="1" c1="0.5"
		   lanesCount="4" ccAccel="1.5" ploegKp="0.2" ploegKd="0.7"
		   ploegH="0.5" speedFactor="0.9" departSpeed="max" vClass="passenger"
		   guiShape="passenger/sedan"/>
	<vType id="passenger90" accel="1.5" decel="4.5" sigma="0.5" length="4"
		   minGap="0" maxSpeed="25" color="0.16,0.33,0.42" probability="1"
		   carFollowModel="CC" tauEngine="0.5" omegaN="0.2" xi="1" c1="0.5"
		   lanesCount="4" ccAccel="1.5" ploegKp="0.2" ploegKd="0.7"
		   ploegH="0.5" speedFactor="0.9" departSpeed="max" vClass="passenger"
		   guiShape="passenger/hatchback"/>
	<vType id="passenger80" accel="1.5" decel="4.5" sigma="0.5" length="4"
		   minGap="0" maxSpeed="22.22" color="0.16,0.33,0.42" probability="1"
		   carFollowModel="CC" tauEngine="0.5" omegaN="0.2" xi="1" c1="0.5"
		   lanesCount="4" ccAccel="1.5" ploegKp="0.2" ploegKd="0.7"
		   ploegH="0.5" speedFactor="0.9" departSpeed="max" vClass="passenger"
		   guiShape="passenger/wagon"/>
	<vType id="passenger70" accel="1.5" decel="4.5" sigma="0.5" length="4"
		   minGap="0" maxSpeed="19.44" color="0.16,0.33,0.42" probability="1"
		   carFollowModel="CC" tauEngine="0.5" omegaN="0.2" xi="1" c1="0.5"
		   lanesCount="4" ccAccel="1.5" ploegKp="0.2" ploegKd="0.7"
		   ploegH="0.5" speedFactor="0.9" departSpeed="max" vClass="passenger"
		   guiShape="passenger/van"/>


	
	<!-- possible routes to take. Build routes by using the tool Netedit. -->	
	<route id="start_to_dest_1" edges="E1 E2 E3 e_exit1 e_absorption1"/>
	<route id="start_to_dest_2" edges="E1 E2 E3 E4 E5 E6 E7 e_exit2 e_absorption2"/>
	<route id="start_to_dest_3" edges="E1 E2 E3 E4 E5 E6 E7 E8 E9 E10 E11 e_exit3 e_absorption3"/>
	<route id="start_to_end" edges="E1 E2 E3 E4 E5 E6 E7 E8 E9 E10 E11 E12 E13 E14"/>

	<route id="dest_1_to_dest_2" edges="e_create1 e_entry1 E5 E6 E7 e_exit2 e_absorption2"/>
	<route id="dest_1_to_dest_3" edges="e_create1 e_entry1 E5 E6 E7 E8 E9 E10 E11 e_exit3 e_absorption3"/>
	<route id="dest_1_to_end" edges="e_create1 e_entry1 E5 E6 E7 E8 E9 E10 E11 E12 E13 E14"/>

	<route id="dest_2_to_dest_3" edges="e_create2 e_entry2 E9 E10 E11 e_exit3 e_absorption3"/>
	<route id="dest_2_to_end" edges="e_create2 e_entry2 E9 E10 E11 E12 E13 E14"/>

	<route id="dest_3_to_end" edges="e_create3 e_entry3 E13 E14"/>
	
</routes>
